
 *******************************************************************************

         NASA-GLENN CHEMICAL EQUILIBRIUM PROGRAM CEA2, MAY 21, 2004
                   BY  BONNIE MCBRIDE AND SANFORD GORDON
      REFS: NASA RP-1311, PART I, 1994 AND NASA RP-1311, PART II, 1996

 *******************************************************************************



 problem    case=1807.7936K_8.7096359bar_TEA
      tp    t,k=1807.7936,  p,bar=8.70963590,
 react
   name=H moles=1.0000000000
   name=He moles=0.0851138038
   name=C moles=0.0002691535
   name=O moles=0.0004897788
   name=N moles=0.0000676083
   name=S moles=0.0000131826
 only
   H He C N O S H2 CO CO2 CH4 H2O HCN C2H4 N2 NH3 H2S
 output    trace= 1.0E-100
 end

 OPTIONS: TP=T  HP=F  SP=F  TV=F  UV=F  SV=F  DETN=F  SHOCK=F  REFL=F  INCD=F
 RKT=F  FROZ=F  EQL=F  IONS=F  SIUNIT=T  DEBUGF=F  SHKDBG=F  DETDBG=F  TRNSPT=F

 T,K =  1807.7936

 TRACE= 1.00-100  S/R= 0.000000E+00  H/R= 0.000000E+00  U/R= 0.000000E+00

 P,BAR =     8.709636

    REACTANT           MOLES    (ENERGY/R),K   TEMP,K  DENSITY
        EXPLODED FORMULA
 N: H                1.000000   0.000000E+00     0.00  0.0000
          H  1.00000
 N: He               0.085114   0.000000E+00     0.00  0.0000
          HE 1.00000
 N: C                0.000269   0.000000E+00     0.00  0.0000
          C  1.00000
 N: O                0.000490   0.000000E+00     0.00  0.0000
          O  1.00000
 N: N                0.000068   0.000000E+00     0.00  0.0000
          N  1.00000
 N: S                0.000013   0.000000E+00     0.00  0.0000
          S  1.00000

  SPECIES BEING CONSIDERED IN THIS SYSTEM
 (CONDENSED PHASE MAY HAVE NAME LISTED SEVERAL TIMES)
  LAST thermo.inp UPDATE:    9/09/04

  g 7/97  *C               g 8/99  CH4              tpis79  *CO            
  g 9/99  *CO2             g 1/00  C2H4             g 6/97  *H             
  g 6/01  HCN              tpis78  *H2              g 8/89  H2O            
  g 4/01  H2S              g 5/97  *He              g 5/97  *N             
  tpis89  NH3              tpis78  *N2              g 5/97  *O             
  g 5/97  *S             

 O/F =   0.000000

                       EFFECTIVE FUEL     EFFECTIVE OXIDANT        MIXTURE
 ENTHALPY                  h(2)/R              h(1)/R               h0/R
 (KG-MOL)(K)/KG        0.00000000E+00      0.00000000E+00      0.00000000E+00

 KG-FORM.WT./KG             bi(2)               bi(1)               b0i
  *H                   0.73472404E+00      0.00000000E+00      0.73472404E+00
  *He                  0.62535158E-01      0.00000000E+00      0.62535158E-01
  *C                   0.19775355E-03      0.00000000E+00      0.19775355E-03
  *O                   0.35985226E-03      0.00000000E+00      0.35985226E-03
  *N                   0.49673443E-04      0.00000000E+00      0.49673443E-04
  *S                   0.96855731E-05      0.00000000E+00      0.96855731E-05

 POINT ITN      T            H           HE          C           O 
                    N           S 
   1   16    1807.794      -8.577     -17.355      -8.605     -31.659
                 -17.107     -22.145




               THERMODYNAMIC EQUILIBRIUM PROPERTIES AT ASSIGNED

                           TEMPERATURE AND PRESSURE

 CASE = 1807.7936K_8.70

             REACTANT                       MOLES         ENERGY      TEMP
                                                         KJ/KG-MOL      K
 NAME        H                            1.0000000         0.000      0.000
 NAME        He                           0.0851138         0.000      0.000
 NAME        C                            0.0002692         0.000      0.000
 NAME        O                            0.0004898         0.000      0.000
 NAME        N                            0.0000676         0.000      0.000
 NAME        S                            0.0000132         0.000      0.000

 O/F=    0.00000  %FUEL=  0.000000  R,EQ.RATIO=*********  PHI,EQ.RATIO= 0.000000

 THERMODYNAMIC PROPERTIES

 P, BAR            8.7096
 T, K             1807.79
 RHO, KG/CU M    1.3471-1
 H, KJ/KG         18981.9
 U, KJ/KG         12516.5
 G, KJ/KG       -111247.2
 S, KJ/(KG)(K)    72.0376

 M, (1/n)           2.325
 (dLV/dLP)t      -1.00007
 (dLV/dLT)p        1.0012
 Cp, KJ/(KG)(K)   13.7486
 GAMMAs            1.3526
 SON VEL,M/SEC     2957.2

 MOLE FRACTIONS

 *C              8.409-17
 CH4             1.1430-5
 *CO             4.4815-4
 *CO2            5.2970-8
 C2H4            1.488-10
 *H              1.1981-4
 HCN             1.1936-7
 *H2             8.5357-1
 H2O             3.8835-4
 H2S             2.2515-5
 *He             1.4538-1
 *N              1.073-13
 NH3             1.4988-6
 *N2             5.6933-5
 *O              3.954-13
 *S              2.1680-9

  * THERMODYNAMIC PROPERTIES FITTED TO 20000.K

    PRODUCTS WHICH WERE CONSIDERED BUT WHOSE MOLE FRACTIONS
    WERE LESS THAN 1.000000-100 FOR ALL ASSIGNED CONDITIONS





