
 *******************************************************************************

         NASA-GLENN CHEMICAL EQUILIBRIUM PROGRAM CEA2, MAY 21, 2004
                   BY  BONNIE MCBRIDE AND SANFORD GORDON
      REFS: NASA RP-1311, PART I, 1994 AND NASA RP-1311, PART II, 1996

 *******************************************************************************



 problem    case=1200.0K_1.0bar_TEA
      tp    t,k=1200.0,  p,bar=1.00000000,
 react
   name=H moles=1.0000000000
   name=C moles=0.0002691535
   name=O moles=0.0004897788
   name=N moles=0.0000676083
 only
   H C N O H2 CO CH4 H2O N2 NH3
 output    trace= 1.0E-100
 end

 OPTIONS: TP=T  HP=F  SP=F  TV=F  UV=F  SV=F  DETN=F  SHOCK=F  REFL=F  INCD=F
 RKT=F  FROZ=F  EQL=F  IONS=F  SIUNIT=T  DEBUGF=F  SHKDBG=F  DETDBG=F  TRNSPT=F

 T,K =  1200.0000

 TRACE= 1.00-100  S/R= 0.000000E+00  H/R= 0.000000E+00  U/R= 0.000000E+00

 P,BAR =     1.000000

    REACTANT           MOLES    (ENERGY/R),K   TEMP,K  DENSITY
        EXPLODED FORMULA
 N: H                1.000000   0.000000E+00     0.00  0.0000
          H  1.00000
 N: C                0.000269   0.000000E+00     0.00  0.0000
          C  1.00000
 N: O                0.000490   0.000000E+00     0.00  0.0000
          O  1.00000
 N: N                0.000068   0.000000E+00     0.00  0.0000
          N  1.00000

  SPECIES BEING CONSIDERED IN THIS SYSTEM
 (CONDENSED PHASE MAY HAVE NAME LISTED SEVERAL TIMES)
  LAST thermo.inp UPDATE:    9/09/04

  g 7/97  *C               g 8/99  CH4              tpis79  *CO            
  g 6/97  *H               tpis78  *H2              g 8/89  H2O            
  g 5/97  *N               tpis89  NH3              tpis78  *N2            
  g 5/97  *O             

 O/F =   0.000000

                       EFFECTIVE FUEL     EFFECTIVE OXIDANT        MIXTURE
 ENTHALPY                  h(2)/R              h(1)/R               h0/R
 (KG-MOL)(K)/KG        0.00000000E+00      0.00000000E+00      0.00000000E+00

 KG-FORM.WT./KG             bi(2)               bi(1)               b0i
  *H                   0.98043459E+00      0.00000000E+00      0.98043459E+00
  *C                   0.26388740E-03      0.00000000E+00      0.26388740E-03
  *O                   0.48019608E-03      0.00000000E+00      0.48019608E-03
  *N                   0.66285516E-04      0.00000000E+00      0.66285516E-04

 POINT ITN      T            H           C           O           N 

   1   16    1200.000      -8.989      -6.131     -39.064     -17.484





               THERMODYNAMIC EQUILIBRIUM PROPERTIES AT ASSIGNED

                           TEMPERATURE AND PRESSURE

 CASE = 1200.0K_1.0bar_

             REACTANT                       MOLES         ENERGY      TEMP
                                                         KJ/KG-MOL      K
 NAME        H                            1.0000000         0.000      0.000
 NAME        C                            0.0002692         0.000      0.000
 NAME        O                            0.0004898         0.000      0.000
 NAME        N                            0.0000676         0.000      0.000

 O/F=    0.00000  %FUEL=  0.000000  R,EQ.RATIO=*********  PHI,EQ.RATIO= 0.000000

 THERMODYNAMIC PROPERTIES

 P, BAR            1.0000
 T, K             1200.00
 RHO, KG/CU M    2.0441-2
 H, KJ/KG         13040.5
 U, KJ/KG         8148.48
 G, KJ/KG        -88142.9
 S, KJ/(KG)(K)    84.3195

 M, (1/n)           2.040
 (dLV/dLP)t      -1.00043
 (dLV/dLT)p        1.0048
 Cp, KJ/(KG)(K)   15.4247
 GAMMAs            1.3632
 SON VEL,M/SEC     2582.4

 MOLE FRACTIONS

 *C              1.249-25
 CH4             2.0871-4
 *CO             3.2950-4
 *H              1.9738-7
 *H2             9.9874-1
 H2O             6.4988-4
 *N              3.433-20
 NH3             1.5657-6
 *N2             6.6813-5
 *O              2.070-19

  * THERMODYNAMIC PROPERTIES FITTED TO 20000.K

    PRODUCTS WHICH WERE CONSIDERED BUT WHOSE MOLE FRACTIONS
    WERE LESS THAN 1.000000-100 FOR ALL ASSIGNED CONDITIONS





