
 *******************************************************************************

         NASA-GLENN CHEMICAL EQUILIBRIUM PROGRAM CEA2, MAY 21, 2004
                   BY  BONNIE MCBRIDE AND SANFORD GORDON
      REFS: NASA RP-1311, PART I, 1994 AND NASA RP-1311, PART II, 1996

 *******************************************************************************



 problem    case=1017.057K_0.003801894bar_TEA
      tp    t,k=1017.057,  p,bar=0.00380189,
 react
   name=H moles=1.0000000000
   name=He moles=0.0851138038
   name=C moles=0.0002691535
   name=O moles=0.0004897788
   name=N moles=0.0000676083
   name=S moles=0.0000131826
 only
   H He C N O S H2 CO CO2 CH4 H2O HCN C2H4 N2 NH3 H2S
 output    trace= 1.0E-100
 end

 OPTIONS: TP=T  HP=F  SP=F  TV=F  UV=F  SV=F  DETN=F  SHOCK=F  REFL=F  INCD=F
 RKT=F  FROZ=F  EQL=F  IONS=F  SIUNIT=T  DEBUGF=F  SHKDBG=F  DETDBG=F  TRNSPT=F

 T,K =  1017.0570

 TRACE= 1.00-100  S/R= 0.000000E+00  H/R= 0.000000E+00  U/R= 0.000000E+00

 P,BAR =     0.003802

    REACTANT           MOLES    (ENERGY/R),K   TEMP,K  DENSITY
        EXPLODED FORMULA
 N: H                1.000000   0.000000E+00     0.00  0.0000
          H  1.00000
 N: He               0.085114   0.000000E+00     0.00  0.0000
          HE 1.00000
 N: C                0.000269   0.000000E+00     0.00  0.0000
          C  1.00000
 N: O                0.000490   0.000000E+00     0.00  0.0000
          O  1.00000
 N: N                0.000068   0.000000E+00     0.00  0.0000
          N  1.00000
 N: S                0.000013   0.000000E+00     0.00  0.0000
          S  1.00000

  SPECIES BEING CONSIDERED IN THIS SYSTEM
 (CONDENSED PHASE MAY HAVE NAME LISTED SEVERAL TIMES)
  LAST thermo.inp UPDATE:    9/09/04

  g 7/97  *C               g 8/99  CH4              tpis79  *CO            
  g 9/99  *CO2             g 1/00  C2H4             g 6/97  *H             
  g 6/01  HCN              tpis78  *H2              g 8/89  H2O            
  g 4/01  H2S              g 5/97  *He              g 5/97  *N             
  tpis89  NH3              tpis78  *N2              g 5/97  *O             
  g 5/97  *S             

 O/F =   0.000000

                       EFFECTIVE FUEL     EFFECTIVE OXIDANT        MIXTURE
 ENTHALPY                  h(2)/R              h(1)/R               h0/R
 (KG-MOL)(K)/KG        0.00000000E+00      0.00000000E+00      0.00000000E+00

 KG-FORM.WT./KG             bi(2)               bi(1)               b0i
  *H                   0.73472404E+00      0.00000000E+00      0.73472404E+00
  *He                  0.62535158E-01      0.00000000E+00      0.62535158E-01
  *C                   0.19775355E-03      0.00000000E+00      0.19775355E-03
  *O                   0.35985226E-03      0.00000000E+00      0.35985226E-03
  *N                   0.49673443E-04      0.00000000E+00      0.49673443E-04
  *S                   0.96855731E-05      0.00000000E+00      0.96855731E-05

 POINT ITN      T            H           HE          C           O 
                    N           S 
   1   16    1017.057     -11.638     -23.974      -8.281     -43.694
                 -20.118     -22.516




               THERMODYNAMIC EQUILIBRIUM PROPERTIES AT ASSIGNED

                           TEMPERATURE AND PRESSURE

 CASE = 1017.057K_0.003

             REACTANT                       MOLES         ENERGY      TEMP
                                                         KJ/KG-MOL      K
 NAME        H                            1.0000000         0.000      0.000
 NAME        He                           0.0851138         0.000      0.000
 NAME        C                            0.0002692         0.000      0.000
 NAME        O                            0.0004898         0.000      0.000
 NAME        N                            0.0000676         0.000      0.000
 NAME        S                            0.0000132         0.000      0.000

 O/F=    0.00000  %FUEL=  0.000000  R,EQ.RATIO=*********  PHI,EQ.RATIO= 0.000000

 THERMODYNAMIC PROPERTIES

 P, BAR           0.00380
 T, K             1017.06
 RHO, KG/CU M    1.0453-4
 H, KJ/KG         8665.25
 U, KJ/KG         5028.02
 G, KJ/KG        -85144.9
 S, KJ/(KG)(K)    92.2368

 M, (1/n)           2.325
 (dLV/dLP)t      -1.00000
 (dLV/dLT)p        1.0000
 Cp, KJ/(KG)(K)   12.4272
 GAMMAs            1.4041
 SON VEL,M/SEC     2259.8

 MOLE FRACTIONS

 *C              6.929-30
 CH4             2.6431-7
 *CO             4.5923-4
 *CO2            2.7106-7
 C2H4            2.529-15
 *H              5.3285-8
 HCN             7.126-11
 *H2             8.5369-1
 H2O             3.7686-4
 H2S             2.2518-5
 *He             1.4539-1
 *N              9.537-23
 NH3             1.1912-8
 *N2             5.7738-5
 *O              4.375-21
 *S              6.233-13

  * THERMODYNAMIC PROPERTIES FITTED TO 20000.K

    PRODUCTS WHICH WERE CONSIDERED BUT WHOSE MOLE FRACTIONS
    WERE LESS THAN 1.000000-100 FOR ALL ASSIGNED CONDITIONS





