
 *******************************************************************************

         NASA-GLENN CHEMICAL EQUILIBRIUM PROGRAM CEA2, MAY 21, 2004
                   BY  BONNIE MCBRIDE AND SANFORD GORDON
      REFS: NASA RP-1311, PART I, 1994 AND NASA RP-1311, PART II, 1996

 *******************************************************************************



 problem    case=300.0K_1.0bar_TEA
      tp    t,k=300.0,  p,bar=1.00000000,
 react
   name=H moles=1.0000000000
   name=C moles=0.0002691535
   name=N moles=0.0000676083
   name=O moles=0.0004897788
 only
   H C N O H2 CO CH4 H2O N2 NH3
 output    trace= 1.0E-100
 end

 OPTIONS: TP=T  HP=F  SP=F  TV=F  UV=F  SV=F  DETN=F  SHOCK=F  REFL=F  INCD=F
 RKT=F  FROZ=F  EQL=F  IONS=F  SIUNIT=T  DEBUGF=F  SHKDBG=F  DETDBG=F  TRNSPT=F

 T,K =   300.0000

 TRACE= 1.00-100  S/R= 0.000000E+00  H/R= 0.000000E+00  U/R= 0.000000E+00

 P,BAR =     1.000000

    REACTANT           MOLES    (ENERGY/R),K   TEMP,K  DENSITY
        EXPLODED FORMULA
 N: H                1.000000   0.000000E+00     0.00  0.0000
          H  1.00000
 N: C                0.000269   0.000000E+00     0.00  0.0000
          C  1.00000
 N: N                0.000068   0.000000E+00     0.00  0.0000
          N  1.00000
 N: O                0.000490   0.000000E+00     0.00  0.0000
          O  1.00000

  SPECIES BEING CONSIDERED IN THIS SYSTEM
 (CONDENSED PHASE MAY HAVE NAME LISTED SEVERAL TIMES)
  LAST thermo.inp UPDATE:    9/09/04

  g 7/97  *C               g 8/99  CH4              tpis79  *CO            
  g 6/97  *H               tpis78  *H2              g 8/89  H2O            
  g 5/97  *N               tpis89  NH3              tpis78  *N2            
  g 5/97  *O             

 O/F =   0.000000

                       EFFECTIVE FUEL     EFFECTIVE OXIDANT        MIXTURE
 ENTHALPY                  h(2)/R              h(1)/R               h0/R
 (KG-MOL)(K)/KG        0.00000000E+00      0.00000000E+00      0.00000000E+00

 KG-FORM.WT./KG             bi(2)               bi(1)               b0i
  *H                   0.98043459E+00      0.00000000E+00      0.98043459E+00
  *C                   0.26388740E-03      0.00000000E+00      0.26388740E-03
  *N                   0.66285516E-04      0.00000000E+00      0.66285516E-04
  *O                   0.48019608E-03      0.00000000E+00      0.48019608E-03

 POINT ITN      T            H           C           N           O 

   1   22     300.000      -7.859     -28.411     -26.932    -110.869





               THERMODYNAMIC EQUILIBRIUM PROPERTIES AT ASSIGNED

                           TEMPERATURE AND PRESSURE

 CASE = 300.0K_1.0bar_T

             REACTANT                       MOLES         ENERGY      TEMP
                                                         KJ/KG-MOL      K
 NAME        H                            1.0000000         0.000      0.000
 NAME        C                            0.0002692         0.000      0.000
 NAME        N                            0.0000676         0.000      0.000
 NAME        O                            0.0004898         0.000      0.000

 O/F=    0.00000  %FUEL=  0.000000  R,EQ.RATIO=*********  PHI,EQ.RATIO= 0.000000

 THERMODYNAMIC PROPERTIES

 P, BAR            1.0000
 T, K              300.00
 RHO, KG/CU M    8.1831-2
 H, KJ/KG         -112.70
 U, KJ/KG        -1334.74
 G, KJ/KG        -19376.7
 S, KJ/(KG)(K)    64.2133

 M, (1/n)           2.041
 (dLV/dLP)t      -1.00000
 (dLV/dLT)p        1.0000
 Cp, KJ/(KG)(K)   14.1383
 GAMMAs            1.4047
 SON VEL,M/SEC     1310.2

 MOLE FRACTIONS

 CH4             5.3863-4
 *CO             1.205-31
 *H              4.195-36
 *H2             9.9835-1
 H2O             9.8015-4
 NH3             1.3530-4
 *N2             4.126-14

  * THERMODYNAMIC PROPERTIES FITTED TO 20000.K

    PRODUCTS WHICH WERE CONSIDERED BUT WHOSE MOLE FRACTIONS
    WERE LESS THAN 1.000000-100 FOR ALL ASSIGNED CONDITIONS

 *C              *N              *O             



