
 *******************************************************************************

         NASA-GLENN CHEMICAL EQUILIBRIUM PROGRAM CEA2, MAY 21, 2004
                   BY  BONNIE MCBRIDE AND SANFORD GORDON
      REFS: NASA RP-1311, PART I, 1994 AND NASA RP-1311, PART II, 1996

 *******************************************************************************



 problem    case=3000.0K_1.0bar_TEA
      tp    t,k=3000.0,  p,bar=1.00000000,
 react
   name=H moles=1.0000000000
   name=C moles=0.0002691535
   name=N moles=0.0000676083
   name=O moles=0.0004897788
 only
   H C N O H2 CO CH4 H2O N2 NH3
 output    trace= 1.0E-100
 end

 OPTIONS: TP=T  HP=F  SP=F  TV=F  UV=F  SV=F  DETN=F  SHOCK=F  REFL=F  INCD=F
 RKT=F  FROZ=F  EQL=F  IONS=F  SIUNIT=T  DEBUGF=F  SHKDBG=F  DETDBG=F  TRNSPT=F

 T,K =  3000.0000

 TRACE= 1.00-100  S/R= 0.000000E+00  H/R= 0.000000E+00  U/R= 0.000000E+00

 P,BAR =     1.000000

    REACTANT           MOLES    (ENERGY/R),K   TEMP,K  DENSITY
        EXPLODED FORMULA
 N: H                1.000000   0.000000E+00     0.00  0.0000
          H  1.00000
 N: C                0.000269   0.000000E+00     0.00  0.0000
          C  1.00000
 N: N                0.000068   0.000000E+00     0.00  0.0000
          N  1.00000
 N: O                0.000490   0.000000E+00     0.00  0.0000
          O  1.00000

  SPECIES BEING CONSIDERED IN THIS SYSTEM
 (CONDENSED PHASE MAY HAVE NAME LISTED SEVERAL TIMES)
  LAST thermo.inp UPDATE:    9/09/04

  g 7/97  *C               g 8/99  CH4              tpis79  *CO            
  g 6/97  *H               tpis78  *H2              g 8/89  H2O            
  g 5/97  *N               tpis89  NH3              tpis78  *N2            
  g 5/97  *O             

 O/F =   0.000000

                       EFFECTIVE FUEL     EFFECTIVE OXIDANT        MIXTURE
 ENTHALPY                  h(2)/R              h(1)/R               h0/R
 (KG-MOL)(K)/KG        0.00000000E+00      0.00000000E+00      0.00000000E+00

 KG-FORM.WT./KG             bi(2)               bi(1)               b0i
  *H                   0.98043459E+00      0.00000000E+00      0.98043459E+00
  *C                   0.26388740E-03      0.00000000E+00      0.26388740E-03
  *N                   0.66285516E-04      0.00000000E+00      0.66285516E-04
  *O                   0.48019608E-03      0.00000000E+00      0.48019608E-03

 POINT ITN      T            H           C           N           O 

   1   18    3000.000     -10.502     -15.295     -19.031     -25.899





               THERMODYNAMIC EQUILIBRIUM PROPERTIES AT ASSIGNED

                           TEMPERATURE AND PRESSURE

 CASE = 3000.0K_1.0bar_

             REACTANT                       MOLES         ENERGY      TEMP
                                                         KJ/KG-MOL      K
 NAME        H                            1.0000000         0.000      0.000
 NAME        C                            0.0002692         0.000      0.000
 NAME        N                            0.0000676         0.000      0.000
 NAME        O                            0.0004898         0.000      0.000

 O/F=    0.00000  %FUEL=  0.000000  R,EQ.RATIO=*********  PHI,EQ.RATIO= 0.000000

 THERMODYNAMIC PROPERTIES

 P, BAR            1.0000
 T, K             3000.00
 RHO, KG/CU M    7.5762-3
 H, KJ/KG         61213.8
 U, KJ/KG         48014.6
 G, KJ/KG       -257267.1
 S, KJ/(KG)(K)   106.1603

 M, (1/n)           1.890
 (dLV/dLP)t      -1.03629
 (dLV/dLT)p        1.6687
 Cp, KJ/(KG)(K)   72.5713
 GAMMAs            1.1528
 SON VEL,M/SEC     3900.7

 MOLE FRACTIONS

 *C              4.670-10
 CH4             5.491-10
 *CO             4.9869-4
 *H              1.4606-1
 *H2             8.5297-1
 H2O             4.0636-4
 *N              1.1003-7
 NH3             4.2734-8
 *N2             6.2556-5
 *O              2.4122-6

  * THERMODYNAMIC PROPERTIES FITTED TO 20000.K

    PRODUCTS WHICH WERE CONSIDERED BUT WHOSE MOLE FRACTIONS
    WERE LESS THAN 1.000000-100 FOR ALL ASSIGNED CONDITIONS





